# Optimized for J. Am. Chem. Soc., 2016, 138 (19), pp 6184â€“6193 DOI: 10.1021/jacs.6b01341
data_SiO2
_symmetry_space_group_name_H-M   'P 1'
_cell_length_a   13.53649400
_cell_length_b   13.53649400
_cell_length_c   14.55281100
_cell_angle_alpha   90.00000000
_cell_angle_beta   90.00000000
_cell_angle_gamma   120.00000000
_symmetry_Int_Tables_number   1
_chemical_formula_structural   SiO2
_chemical_formula_sum   'Si36 O72'
_cell_volume   2309.35081037
_cell_formula_units_Z   36
loop_
 _symmetry_equiv_pos_site_id
 _symmetry_equiv_pos_as_xyz
  1  'x, y, z'
loop_
 _atom_site_type_symbol
 _atom_site_label
 _atom_site_symmetry_multiplicity
 _atom_site_fract_x
 _atom_site_fract_y
 _atom_site_fract_z
 _atom_site_occupancy
  O  O1  1  0.902000  0.098000  0.122700  1
  O  O2  1  0.568667  0.431333  0.456033  1
  O  O3  1  0.235333  0.764667  0.789367  1
  O  O4  1  0.902000  0.801624  0.122700  1
  O  O5  1  0.568667  0.134958  0.456033  1
  O  O6  1  0.235333  0.468291  0.789367  1
  O  O7  1  0.198376  0.098000  0.122700  1
  O  O8  1  0.865042  0.431333  0.456033  1
  O  O9  1  0.531709  0.764667  0.789367  1
  O  O10  1  0.099584  0.900416  0.871094  1
  O  O11  1  0.766250  0.233750  0.204427  1
  O  O12  1  0.432917  0.567083  0.537761  1
  O  O13  1  0.099584  0.196792  0.871094  1
  O  O14  1  0.766250  0.530125  0.204427  1
  O  O15  1  0.432917  0.863459  0.537761  1
  O  O16  1  0.803208  0.900416  0.871094  1
  O  O17  1  0.469875  0.233750  0.204427  1
  O  O18  1  0.136541  0.567083  0.537761  1
  O  O19  1  0.984510  0.316259  0.163564  1
  O  O20  1  0.651176  0.649593  0.496897  1
  O  O21  1  0.317843  0.982926  0.830230  1
  O  O22  1  0.683741  0.665875  0.163564  1
  O  O23  1  0.017074  0.332541  0.830230  1
  O  O24  1  0.334125  0.015490  0.163564  1
  O  O25  1  0.000792  0.348824  0.496897  1
  O  O26  1  0.667459  0.682157  0.830230  1
  O  O27  1  0.683741  0.015490  0.163564  1
  O  O28  1  0.350407  0.348824  0.496897  1
  O  O29  1  0.017074  0.682157  0.830230  1
  O  O30  1  0.334125  0.316259  0.163564  1
  O  O31  1  0.000792  0.649593  0.496897  1
  O  O32  1  0.667459  0.982926  0.830230  1
  O  O33  1  0.984510  0.665875  0.163564  1
  O  O34  1  0.317843  0.332541  0.830230  1
  O  O35  1  0.651176  0.999208  0.496897  1
  O  O36  1  0.350407  0.999208  0.496897  1
  O  O37  1  0.119758  0.237140  0.132179  1
  O  O38  1  0.786424  0.570473  0.465512  1
  O  O39  1  0.453091  0.903806  0.798845  1
  O  O40  1  0.762860  0.880242  0.132179  1
  O  O41  1  0.429527  0.213576  0.465512  1
  O  O42  1  0.096194  0.546909  0.798845  1
  O  O43  1  0.119758  0.880242  0.132179  1
  O  O44  1  0.786424  0.213576  0.465512  1
  O  O45  1  0.453091  0.546909  0.798845  1
  O  O46  1  0.881826  0.761277  0.861615  1
  O  O47  1  0.548493  0.094610  0.194949  1
  O  O48  1  0.215159  0.427943  0.528282  1
  O  O49  1  0.238723  0.118174  0.861615  1
  O  O50  1  0.905390  0.451507  0.194949  1
  O  O51  1  0.572057  0.784841  0.528282  1
  O  O52  1  0.881826  0.118174  0.861615  1
  O  O53  1  0.548493  0.451507  0.194949  1
  O  O54  1  0.215159  0.784841  0.528282  1
  O  O55  1  0.000792  0.258633  0.996897  1
  O  O56  1  0.667459  0.591967  0.330230  1
  O  O57  1  0.334125  0.925300  0.663564  1
  O  O58  1  0.741367  0.739783  0.996897  1
  O  O59  1  0.408033  0.073116  0.330230  1
  O  O60  1  0.074700  0.406450  0.663564  1
  O  O61  1  0.260217  0.999208  0.996897  1
  O  O62  1  0.926884  0.332541  0.330230  1
  O  O63  1  0.593550  0.665875  0.663564  1
  O  O64  1  0.741367  0.999208  0.996897  1
  O  O65  1  0.408033  0.332541  0.330230  1
  O  O66  1  0.074700  0.665875  0.663564  1
  O  O67  1  0.260217  0.258633  0.996897  1
  O  O68  1  0.926884  0.591967  0.330230  1
  O  O69  1  0.593550  0.925300  0.663564  1
  O  O70  1  0.000792  0.739783  0.996897  1
  O  O71  1  0.667459  0.073116  0.330230  1
  O  O72  1  0.334125  0.406450  0.663564  1
  Si  Si73  1  0.001093  0.226830  0.102987  1
  Si  Si74  1  0.667760  0.560164  0.436321  1
  Si  Si75  1  0.334427  0.893497  0.769654  1
  Si  Si76  1  0.773170  0.771888  0.102987  1
  Si  Si77  1  0.439836  0.105221  0.436321  1
  Si  Si78  1  0.106503  0.438554  0.769654  1
  Si  Si79  1  0.228112  0.998907  0.102987  1
  Si  Si80  1  0.894779  0.332240  0.436321  1
  Si  Si81  1  0.561446  0.665573  0.769654  1
  Si  Si82  1  0.773170  0.998907  0.102987  1
  Si  Si83  1  0.439836  0.332240  0.436321  1
  Si  Si84  1  0.106503  0.665573  0.769654  1
  Si  Si85  1  0.228112  0.226830  0.102987  1
  Si  Si86  1  0.894779  0.560164  0.436321  1
  Si  Si87  1  0.561446  0.893497  0.769654  1
  Si  Si88  1  0.001093  0.771888  0.102987  1
  Si  Si89  1  0.667760  0.105221  0.436321  1
  Si  Si90  1  0.334427  0.438554  0.769654  1
  Si  Si91  1  0.000490  0.771586  0.890807  1
  Si  Si92  1  0.667157  0.104919  0.224140  1
  Si  Si93  1  0.333824  0.438253  0.557473  1
  Si  Si94  1  0.228414  0.226529  0.890807  1
  Si  Si95  1  0.895081  0.559862  0.224140  1
  Si  Si96  1  0.561747  0.893195  0.557473  1
  Si  Si97  1  0.773471  0.999510  0.890807  1
  Si  Si98  1  0.440138  0.332843  0.224140  1
  Si  Si99  1  0.106805  0.666176  0.557473  1
  Si  Si100  1  0.228414  0.999510  0.890807  1
  Si  Si101  1  0.895081  0.332843  0.224140  1
  Si  Si102  1  0.561747  0.666176  0.557473  1
  Si  Si103  1  0.773471  0.771586  0.890807  1
  Si  Si104  1  0.440138  0.104919  0.224140  1
  Si  Si105  1  0.106805  0.438253  0.557473  1
  Si  Si106  1  0.000490  0.226529  0.890807  1
  Si  Si107  1  0.667157  0.559862  0.224140  1
  Si  Si108  1  0.333824  0.893195  0.557473  1
